xflr5 v6.61

AHAPS_Roll
T1-32.5 m/s-VLM2
QInf  =   32.455000 m/s
Alpha =    9.500000
Beta  =    0.000°
Phi   =    0.000°
Ctrl  =    0.000
CL    =    0.831714
Cy    =   -0.007229
Cd    =    0.037980     ICd   =    0.022505     PCd   =    0.015475
Cl   =   -0.065981
Cm   =  -0.0714476
ICn   =    0.000553     PCn   =    0.000330 
XCP   =    2.431634     YCP   =    2.641599     ZCP   =    0.015397  
XNP   =    0.000000
Bending = 7775.065088

Main WingFlap    1 moment =    8.3693 N.m
Flap    2 moment =   -6.8297 N.m

  y-span        Chord      Ai         Cl        PCd          ICd        CmGeom    CmAirf@chord/4    XTrtop    XTrBot      XCP       BM
  -18.8078     1.6700     2.165   -0.059185    0.005969    0.002240    0.005626    0.000000     0.8155    0.7060    0.1270    0.0000
  -18.6175     1.6700     2.142   -0.081275    0.006020    0.003044    0.005023    0.000000     0.8336    0.6835    0.1450   -0.0000
  -18.4273     1.6700     2.121   -0.091722    0.006049    0.003401    0.004393   -0.000000     0.8418    0.6730    0.1576   -0.0000
  -18.2370     1.6700     2.103   -0.094805    0.006058    0.003484    0.003744   -0.000000     0.8442    0.6699    0.1662    0.0000
  -18.0466     1.6700     2.087   -0.092000    0.006050    0.003357    0.003085   -0.000000     0.8420    0.6727    0.1717   -0.0000
  -17.8563     1.6700     2.076   -0.083839    0.006027    0.003042    0.002421    0.000000     0.8356    0.6810    0.1747    0.0000
  -17.6660     1.6700     2.068   -0.070385    0.005994    0.002544    0.001760   -0.000000     0.8247    0.6946    0.1759   -0.0000
  -17.4757     1.6700     2.062   -0.051398    0.005953    0.001852    0.001104    0.000000     0.8090    0.7138    0.1773   -0.0000
  -17.2855     1.6700     2.054   -0.026468    0.005924    0.000950    0.000458    0.000000     0.7874    0.7382    0.1946    0.0000
  -17.0952     1.6700     2.041    0.004396    0.005913   -0.000157   -0.000182    0.000000     0.7592    0.7674   -0.3179    0.0000
  -16.9703     1.6700     2.663    0.019982    0.006142   -0.000905   -0.010380   -0.000460     0.6998    0.7853   -0.1199    1.9306
  -16.9109     1.6700     2.670    0.032638    0.006410   -0.001461   -0.015690   -0.000575     0.6398    0.7981   -0.0952    1.9314
  -16.8515     1.6700     2.708    0.045746    0.006705   -0.002035   -0.020960   -0.000698     0.5768    0.8094   -0.0744    1.9323
  -16.7921     1.6700     2.820    0.060204    0.007004   -0.002693   -0.026253   -0.000794     0.5157    0.8189   -0.0538    1.9334
  -16.7327     1.6700     3.235    0.076683    0.007335   -0.003578   -0.031497   -0.000797     0.4562    0.8263   -0.0303    1.9348
  -16.6959     1.6700    -4.374    0.122546    0.007672    0.009234   -0.173434    0.033699     0.4121    0.8404   -0.0088    2.4746
  -16.6674     1.6700    -2.873    0.143997    0.007808    0.007039   -0.204177    0.036441     0.3988    0.8452    0.0100    2.4678
  -16.6110     1.6700    -2.839    0.166533    0.007842    0.008120   -0.235716    0.038744     0.3937    0.8499    0.0278    2.4944
  -16.5276     1.6700    -2.868    0.190213    0.007877    0.009434   -0.268418    0.040627     0.3876    0.8557    0.0449    2.6364
  -16.4186     1.6700    -2.900    0.213752    0.007946    0.010762   -0.299905    0.042191     0.3798    0.8620    0.0597    3.0297
  -16.2859     1.6700    -2.938    0.235482    0.008053    0.012042   -0.327162    0.043565     0.3711    0.8678    0.0712    3.8639
  -16.1317     1.6700    -2.992    0.253612    0.008173    0.013224   -0.347092    0.045021     0.3625    0.8727    0.0781    5.3713
  -15.9588     1.6700    -3.071    0.266215    0.008262    0.014265   -0.356475    0.047076     0.3565    0.8760    0.0787    7.8029
  -15.7700     1.6700    -3.197    0.270944    0.008296    0.015123   -0.351470    0.050642     0.3543    0.8772    0.0691   11.3939
  -15.5687     1.6700    -3.403    0.264367    0.008249    0.015715   -0.326378    0.057407     0.3574    0.8755    0.0404   16.3200
  -15.3581     1.6700    -3.745    0.240099    0.008084    0.015714   -0.270157    0.070939     0.3690    0.8690   -0.0337   22.6477
  -15.1420     1.6700    -4.265    0.181605    0.007863    0.013545   -0.153391    0.100611     0.3901    0.8534   -0.2757   30.2777
  -14.8260     1.6700     3.647   -0.000764    0.033112    0.000050    0.199135    0.204327     0.2985    0.8844   264.9282   43.0806
  -14.0535     1.6700     2.716   -0.020304    0.033327    0.000962    0.241732    0.224069     0.3025    0.8843   11.2505   74.7462
  -12.7155     1.6700     3.061    0.094575    0.032109   -0.004986    0.132391    0.223985     0.2697    0.8836   -2.1231   126.2947
  -10.1940     1.6700    -1.609    0.820070    0.011330    0.023049   -0.406780    0.023267     0.2219    0.9760    0.2199   263.5606
   -4.2225     1.6700    -0.614    0.905867    0.011776    0.009719    0.414055    0.019333     0.2130    0.9824    0.2270   2445.6869
    4.2225     1.6700    -0.444    0.918386    0.011840    0.007108    0.419282    0.019075     0.2118    0.9837    0.2276   7775.0651
   10.1940     1.6700    -0.127    0.941396    0.011974    0.001916   -0.477003    0.017197     0.2089    0.9855    0.2301   2150.6315
   12.7155     1.6700    -5.276    1.482591    0.025744    0.136566   -1.549147   -0.173972     0.2018    0.7122    0.3589   675.8548
   14.0535     1.6700    -6.146    1.462183    0.025421    0.157484   -1.835801   -0.171085     0.2055    0.7096    0.3590   225.6133
   14.8260     1.6700   -10.744    1.176406    0.021369    0.222086   -1.516355   -0.066092     0.2820    0.6760    0.2990   104.1550
   15.1420     1.6700    -4.344    0.572157    0.009680    0.045532   -0.515725    0.210784     0.2776    0.9402   -0.1341   71.5738
   15.3581     1.6700    -2.363    0.678013    0.010334    0.029489   -0.833954    0.094247     0.2546    0.9602    0.1109   52.6781
   15.5687     1.6700    -1.510    0.676274    0.010327    0.018548   -0.905083    0.058626     0.2548    0.9599    0.1638   37.3908
   15.7700     1.6700    -1.248    0.650552    0.010241    0.014492   -0.909431    0.044901     0.2568    0.9554    0.1813   25.6497
   15.9588     1.6700    -1.201    0.617130    0.010073    0.013025   -0.888969    0.038695     0.2616    0.9497    0.1875   17.1085
   16.1317     1.6700    -1.237    0.580905    0.009749    0.012493   -0.856629    0.035460     0.2747    0.9423    0.1892   11.2731
   16.2859     1.6700    -1.311    0.543802    0.009487    0.012276   -0.817688    0.033410     0.2860    0.9340    0.1889    7.5835
   16.4186     1.6700    -1.404    0.506825    0.009320    0.012129   -0.775010    0.031748     0.2947    0.9273    0.1879    5.4774
   16.5276     1.6700    -1.506    0.470727    0.009241    0.011936   -0.730842    0.030101     0.2999    0.9207    0.1868    4.4396
   16.6110     1.6700    -1.616    0.436133    0.009121    0.011658   -0.687289    0.028271     0.3060    0.9139    0.1863    4.0385
   16.6674     1.6700    -1.820    0.403481    0.008858    0.011913   -0.645834    0.026125     0.3194    0.9073    0.1869    3.9485
   16.6959     1.6700    -3.965    0.372608    0.008665    0.025158   -0.605042    0.023482     0.3304    0.9011    0.1890    3.9582
   16.7327     1.6700     4.316    0.276135    0.008079   -0.016336   -0.049039    0.002840     0.3768    0.8922    0.1887    2.7840
   16.7921     1.6700     3.792    0.259353    0.007709   -0.014741   -0.043375    0.002699     0.4127    0.9006    0.1953    2.7816
   16.8515     1.6700     3.645    0.242012    0.007331   -0.013681   -0.037729    0.002703     0.4542    0.9071    0.2042    2.7801
   16.9109     1.6700     3.587    0.225716    0.006965   -0.012830   -0.032128    0.002757     0.4987    0.9131    0.2157    2.7797
   16.9703     1.6700     3.561    0.209596    0.006598   -0.012018   -0.026459    0.002810     0.5469    0.9182    0.2311    2.7802
   17.0952     1.6700     2.836    0.226302    0.006684   -0.011296   -0.000206    0.000000     0.5320    0.9266    0.2771    0.0000
   17.2855     1.6700     2.873    0.184878    0.006429   -0.009333    0.000497   -0.000000     0.5761    0.9050    0.2984   -0.0000
   17.4757     1.6700     2.877    0.148516    0.006248   -0.007500    0.001159    0.000000     0.6144    0.8826    0.3173    0.0000
   17.6660     1.6700     2.861    0.117061    0.006126   -0.005871    0.001799   -0.000000     0.6472    0.8610    0.3374   -0.0000
   17.8563     1.6700     2.831    0.089881    0.006044   -0.004458    0.002428   -0.000000     0.6749    0.8403    0.3623    0.0000
   18.0466     1.6700     2.793    0.066474    0.005986   -0.003251    0.003052   -0.000000     0.6986    0.8215    0.3969   -0.0000
   18.2370     1.6700     2.751    0.046498    0.005947   -0.002239    0.003676    0.000000     0.7186    0.8048    0.4505    0.0000
   18.4273     1.6700     2.707    0.029762    0.005928   -0.001409    0.004305   -0.000000     0.7349    0.7902    0.5432   -0.0000
   18.6175     1.6700     2.659    0.016230    0.005919   -0.000755    0.004938   -0.000000     0.7479    0.7781    0.7302   -0.0000
   18.8078     1.6700     2.608    0.006075    0.005914   -0.000277    0.005573    0.000000     0.7576    0.7689    1.2327    0.0000


Main Wing Cp Coefficients
 Panel     CtrlPt.x        CtrlPt.y        CtrlPt.z       Nx      Ny       Nz        Area       Cp
Main WingCp Coefficients
Strip 1
   0       6.626e+00      -1.660e+01       2.115e+00          -0.081           0.997           0.018       1.957e-03         -0.0010
   1       6.611e+00      -1.660e+01       2.115e+00          -0.081           0.997           0.018       5.822e-03         -0.0017
   2       6.575e+00      -1.661e+01       2.115e+00          -0.081           0.997           0.018       9.544e-03         -0.0024
   3       6.521e+00      -1.661e+01       2.115e+00          -0.081           0.997           0.018       1.303e-02         -0.0032
   4       6.448e+00      -1.662e+01       2.115e+00          -0.081           0.997           0.018       1.620e-02         -0.0041
   5       6.360e+00      -1.662e+01       2.115e+00          -0.081           0.997           0.018       1.896e-02         -0.0052
   6       6.258e+00      -1.663e+01       2.115e+00          -0.081           0.997           0.018       2.126e-02         -0.0066
   7       6.144e+00      -1.664e+01       2.115e+00          -0.081           0.997           0.018       2.304e-02         -0.0084
   8       6.022e+00      -1.665e+01       2.115e+00          -0.081           0.997           0.018       2.425e-02         -0.0107
   9       5.894e+00      -1.666e+01       2.115e+00          -0.081           0.997           0.018       2.486e-02         -0.0139
  10       5.764e+00      -1.667e+01       2.115e+00          -0.081           0.997           0.018       2.486e-02         -0.0185
  11       5.634e+00      -1.668e+01       2.115e+00          -0.081           0.997           0.018       2.425e-02         -0.0251
  12       5.509e+00      -1.669e+01       2.115e+00          -0.081           0.997           0.018       2.304e-02         -0.0350
  13       5.390e+00      -1.670e+01       2.115e+00          -0.081           0.997           0.018       2.126e-02         -0.0501
  14       5.282e+00      -1.671e+01       2.115e+00          -0.081           0.997           0.018       1.896e-02         -0.0743
  15       5.186e+00      -1.672e+01       2.115e+00          -0.081           0.997           0.018       1.620e-02         -0.1145
  16       5.106e+00      -1.673e+01       2.115e+00          -0.081           0.997           0.018       1.303e-02         -0.1834
  17       5.042e+00      -1.673e+01       2.115e+00          -0.081           0.997           0.018       9.544e-03         -0.3066
  18       4.997e+00      -1.673e+01       2.115e+00          -0.081           0.997           0.018       5.822e-03         -0.5652
  19       4.972e+00      -1.674e+01       2.115e+00          -0.081           0.997           0.018       1.957e-03         -1.4205
Strip 2
  20       6.583e+00      -1.660e+01       1.925e+00          -0.081           0.997           0.018       1.957e-03         -0.0015
  21       6.568e+00      -1.660e+01       1.925e+00          -0.081           0.997           0.018       5.822e-03         -0.0026
  22       6.532e+00      -1.661e+01       1.925e+00          -0.081           0.997           0.018       9.544e-03         -0.0038
  23       6.478e+00      -1.661e+01       1.925e+00          -0.081           0.997           0.018       1.303e-02         -0.0051
  24       6.405e+00      -1.662e+01       1.925e+00          -0.081           0.997           0.018       1.620e-02         -0.0067
  25       6.317e+00      -1.662e+01       1.925e+00          -0.081           0.997           0.018       1.896e-02         -0.0084
  26       6.215e+00      -1.663e+01       1.925e+00          -0.081           0.997           0.018       2.126e-02         -0.0107
  27       6.101e+00      -1.664e+01       1.925e+00          -0.081           0.997           0.018       2.304e-02         -0.0136
  28       5.979e+00      -1.665e+01       1.925e+00          -0.081           0.997           0.018       2.425e-02         -0.0174
  29       5.851e+00      -1.666e+01       1.925e+00          -0.081           0.997           0.018       2.486e-02         -0.0227
  30       5.721e+00      -1.667e+01       1.925e+00          -0.081           0.997           0.018       2.486e-02         -0.0303
  31       5.591e+00      -1.668e+01       1.925e+00          -0.081           0.997           0.018       2.425e-02         -0.0412
  32       5.466e+00      -1.669e+01       1.925e+00          -0.081           0.997           0.018       2.304e-02         -0.0572
  33       5.348e+00      -1.670e+01       1.925e+00          -0.081           0.997           0.018       2.126e-02         -0.0808
  34       5.239e+00      -1.671e+01       1.925e+00          -0.081           0.997           0.018       1.896e-02         -0.1160
  35       5.144e+00      -1.672e+01       1.925e+00          -0.081           0.997           0.018       1.620e-02         -0.1686
  36       5.063e+00      -1.673e+01       1.925e+00          -0.081           0.997           0.018       1.303e-02         -0.2496
  37       4.999e+00      -1.673e+01       1.925e+00          -0.081           0.997           0.018       9.544e-03         -0.3861
  38       4.954e+00      -1.673e+01       1.925e+00          -0.081           0.997           0.018       5.822e-03         -0.6768
  39       4.929e+00      -1.674e+01       1.925e+00          -0.081           0.997           0.018       1.957e-03         -1.6674
Strip 3
  40       6.540e+00      -1.660e+01       1.735e+00          -0.081           0.997           0.018       1.957e-03         -0.0019
  41       6.525e+00      -1.660e+01       1.735e+00          -0.081           0.997           0.018       5.822e-03         -0.0033
  42       6.489e+00      -1.661e+01       1.735e+00          -0.081           0.997           0.018       9.544e-03         -0.0049
  43       6.435e+00      -1.661e+01       1.735e+00          -0.081           0.997           0.018       1.303e-02         -0.0067
  44       6.362e+00      -1.662e+01       1.735e+00          -0.081           0.997           0.018       1.620e-02         -0.0086
  45       6.274e+00      -1.662e+01       1.735e+00          -0.081           0.997           0.018       1.896e-02         -0.0110
  46       6.172e+00      -1.663e+01       1.735e+00          -0.081           0.997           0.018       2.126e-02         -0.0138
  47       6.058e+00      -1.664e+01       1.735e+00          -0.081           0.997           0.018       2.304e-02         -0.0175
  48       5.936e+00      -1.665e+01       1.735e+00          -0.081           0.997           0.018       2.425e-02         -0.0224
  49       5.808e+00      -1.666e+01       1.735e+00          -0.081           0.997           0.018       2.486e-02         -0.0291
  50       5.678e+00      -1.667e+01       1.735e+00          -0.081           0.997           0.018       2.486e-02         -0.0385
  51       5.548e+00      -1.668e+01       1.735e+00          -0.081           0.997           0.018       2.425e-02         -0.0519
  52       5.423e+00      -1.669e+01       1.735e+00          -0.081           0.997           0.018       2.304e-02         -0.0708
  53       5.305e+00      -1.670e+01       1.735e+00          -0.081           0.997           0.018       2.126e-02         -0.0977
  54       5.196e+00      -1.671e+01       1.735e+00          -0.081           0.997           0.018       1.896e-02         -0.1358
  55       5.101e+00      -1.672e+01       1.735e+00          -0.081           0.997           0.018       1.620e-02         -0.1904
  56       5.020e+00      -1.673e+01       1.735e+00          -0.081           0.997           0.018       1.303e-02         -0.2727
  57       4.956e+00      -1.673e+01       1.735e+00          -0.081           0.997           0.018       9.544e-03         -0.4118
  58       4.911e+00      -1.673e+01       1.735e+00          -0.081           0.997           0.018       5.822e-03         -0.7117
  59       4.886e+00      -1.674e+01       1.735e+00          -0.081           0.997           0.018       1.957e-03         -1.7439
Strip 4
  60       6.497e+00      -1.660e+01       1.544e+00          -0.081           0.997           0.018       1.957e-03         -0.0022
  61       6.482e+00      -1.660e+01       1.544e+00          -0.081           0.997           0.018       5.822e-03         -0.0039
  62       6.446e+00      -1.661e+01       1.544e+00          -0.081           0.997           0.018       9.544e-03         -0.0058
  63       6.392e+00      -1.661e+01       1.544e+00          -0.081           0.997           0.018       1.303e-02         -0.0078
  64       6.319e+00      -1.662e+01       1.544e+00          -0.081           0.997           0.018       1.620e-02         -0.0101
  65       6.231e+00      -1.662e+01       1.544e+00          -0.081           0.997           0.018       1.896e-02         -0.0127
  66       6.129e+00      -1.663e+01       1.544e+00          -0.081           0.997           0.018       2.126e-02         -0.0159
  67       6.015e+00      -1.664e+01       1.544e+00          -0.081           0.997           0.018       2.304e-02         -0.0200
  68       5.893e+00      -1.665e+01       1.544e+00          -0.081           0.997           0.018       2.425e-02         -0.0254
  69       5.765e+00      -1.666e+01       1.544e+00          -0.081           0.997           0.018       2.486e-02         -0.0326
  70       5.635e+00      -1.667e+01       1.544e+00          -0.081           0.997           0.018       2.486e-02         -0.0427
  71       5.505e+00      -1.668e+01       1.544e+00          -0.081           0.997           0.018       2.425e-02         -0.0567
  72       5.380e+00      -1.669e+01       1.544e+00          -0.081           0.997           0.018       2.304e-02         -0.0763
  73       5.262e+00      -1.670e+01       1.544e+00          -0.081           0.997           0.018       2.126e-02         -0.1034
  74       5.153e+00      -1.671e+01       1.544e+00          -0.081           0.997           0.018       1.896e-02         -0.1411
  75       5.058e+00      -1.672e+01       1.544e+00          -0.081           0.997           0.018       1.620e-02         -0.1946
  76       4.977e+00      -1.673e+01       1.544e+00          -0.081           0.997           0.018       1.303e-02         -0.2751
  77       4.913e+00      -1.673e+01       1.544e+00          -0.081           0.997           0.018       9.544e-03         -0.4117
  78       4.868e+00      -1.673e+01       1.544e+00          -0.081           0.997           0.018       5.822e-03         -0.7083
  79       4.843e+00      -1.674e+01       1.544e+00          -0.081           0.997           0.018       1.957e-03         -1.7326
Strip 5
  80       6.454e+00      -1.660e+01       1.354e+00          -0.081           0.997           0.018       1.957e-03         -0.0024
  81       6.439e+00      -1.660e+01       1.354e+00          -0.081           0.997           0.018       5.822e-03         -0.0043
  82       6.403e+00      -1.661e+01       1.354e+00          -0.081           0.997           0.018       9.544e-03         -0.0063
  83       6.349e+00      -1.661e+01       1.354e+00          -0.081           0.997           0.018       1.303e-02         -0.0086
  84       6.277e+00      -1.662e+01       1.354e+00          -0.081           0.997           0.018       1.620e-02         -0.0110
  85       6.188e+00      -1.662e+01       1.354e+00          -0.081           0.997           0.018       1.896e-02         -0.0137
  86       6.086e+00      -1.663e+01       1.354e+00          -0.081           0.997           0.018       2.126e-02         -0.0170
  87       5.972e+00      -1.664e+01       1.354e+00          -0.081           0.997           0.018       2.304e-02         -0.0210
  88       5.850e+00      -1.665e+01       1.354e+00          -0.081           0.997           0.018       2.425e-02         -0.0262
  89       5.722e+00      -1.666e+01       1.354e+00          -0.081           0.997           0.018       2.486e-02         -0.0332
  90       5.592e+00      -1.667e+01       1.354e+00          -0.081           0.997           0.018       2.486e-02         -0.0427
  91       5.462e+00      -1.668e+01       1.354e+00          -0.081           0.997           0.018       2.425e-02         -0.0560
  92       5.337e+00      -1.669e+01       1.354e+00          -0.081           0.997           0.018       2.304e-02         -0.0745
  93       5.219e+00      -1.670e+01       1.354e+00          -0.081           0.997           0.018       2.126e-02         -0.1002
  94       5.110e+00      -1.671e+01       1.354e+00          -0.081           0.997           0.018       1.896e-02         -0.1358
  95       5.015e+00      -1.672e+01       1.354e+00          -0.081           0.997           0.018       1.620e-02         -0.1865
  96       4.934e+00      -1.673e+01       1.354e+00          -0.081           0.997           0.018       1.303e-02         -0.2630
  97       4.870e+00      -1.673e+01       1.354e+00          -0.081           0.997           0.018       9.544e-03         -0.3934
  98       4.825e+00      -1.673e+01       1.354e+00          -0.081           0.997           0.018       5.822e-03         -0.6769
  99       4.800e+00      -1.674e+01       1.354e+00          -0.081           0.997           0.018       1.957e-03         -1.6563
Strip 6
 100       6.411e+00      -1.660e+01       1.164e+00          -0.081           0.997           0.018       1.957e-03         -0.0026
 101       6.396e+00      -1.660e+01       1.164e+00          -0.081           0.997           0.018       5.822e-03         -0.0045
 102       6.361e+00      -1.661e+01       1.164e+00          -0.081           0.997           0.018       9.544e-03         -0.0066
 103       6.306e+00      -1.661e+01       1.164e+00          -0.081           0.997           0.018       1.303e-02         -0.0089
 104       6.234e+00      -1.662e+01       1.164e+00          -0.081           0.997           0.018       1.620e-02         -0.0113
 105       6.145e+00      -1.662e+01       1.164e+00          -0.081           0.997           0.018       1.896e-02         -0.0139
 106       6.043e+00      -1.663e+01       1.164e+00          -0.081           0.997           0.018       2.126e-02         -0.0169
 107       5.929e+00      -1.664e+01       1.164e+00          -0.081           0.997           0.018       2.304e-02         -0.0205
 108       5.807e+00      -1.665e+01       1.164e+00          -0.081           0.997           0.018       2.425e-02         -0.0248
 109       5.679e+00      -1.666e+01       1.164e+00          -0.081           0.997           0.018       2.486e-02         -0.0306
 110       5.549e+00      -1.667e+01       1.164e+00          -0.081           0.997           0.018       2.486e-02         -0.0386
 111       5.420e+00      -1.668e+01       1.164e+00          -0.081           0.997           0.018       2.425e-02         -0.0500
 112       5.294e+00      -1.669e+01       1.164e+00          -0.081           0.997           0.018       2.304e-02         -0.0661
 113       5.176e+00      -1.670e+01       1.164e+00          -0.081           0.997           0.018       2.126e-02         -0.0890
 114       5.067e+00      -1.671e+01       1.164e+00          -0.081           0.997           0.018       1.896e-02         -0.1213
 115       4.972e+00      -1.672e+01       1.164e+00          -0.081           0.997           0.018       1.620e-02         -0.1678
 116       4.891e+00      -1.673e+01       1.164e+00          -0.081           0.997           0.018       1.303e-02         -0.2385
 117       4.827e+00      -1.673e+01       1.164e+00          -0.081           0.997           0.018       9.544e-03         -0.3589
 118       4.782e+00      -1.673e+01       1.164e+00          -0.081           0.997           0.018       5.822e-03         -0.6206
 119       4.757e+00      -1.674e+01       1.164e+00          -0.081           0.997           0.018       1.957e-03         -1.5220
Strip 7
 120       6.368e+00      -1.660e+01       9.736e-01          -0.081           0.997           0.018       1.957e-03         -0.0026
 121       6.353e+00      -1.660e+01       9.736e-01          -0.081           0.997           0.018       5.822e-03         -0.0046
 122       6.318e+00      -1.661e+01       9.736e-01          -0.081           0.997           0.018       9.544e-03         -0.0067
 123       6.263e+00      -1.661e+01       9.736e-01          -0.081           0.997           0.018       1.303e-02         -0.0089
 124       6.191e+00      -1.662e+01       9.736e-01          -0.081           0.997           0.018       1.620e-02         -0.0112
 125       6.102e+00      -1.662e+01       9.736e-01          -0.081           0.997           0.018       1.896e-02         -0.0136
 126       6.000e+00      -1.663e+01       9.736e-01          -0.081           0.997           0.018       2.126e-02         -0.0161
 127       5.886e+00      -1.664e+01       9.736e-01          -0.081           0.997           0.018       2.304e-02         -0.0187
 128       5.764e+00      -1.665e+01       9.736e-01          -0.081           0.997           0.018       2.425e-02         -0.0216
 129       5.636e+00      -1.666e+01       9.736e-01          -0.081           0.997           0.018       2.486e-02         -0.0252
 130       5.506e+00      -1.667e+01       9.736e-01          -0.081           0.997           0.018       2.486e-02         -0.0305
 131       5.377e+00      -1.668e+01       9.736e-01          -0.081           0.997           0.018       2.425e-02         -0.0385
 132       5.251e+00      -1.669e+01       9.736e-01          -0.081           0.997           0.018       2.304e-02         -0.0509
 133       5.133e+00      -1.670e+01       9.736e-01          -0.081           0.997           0.018       2.126e-02         -0.0697
 134       5.025e+00      -1.671e+01       9.736e-01          -0.081           0.997           0.018       1.896e-02         -0.0974
 135       4.929e+00      -1.672e+01       9.736e-01          -0.081           0.997           0.018       1.620e-02         -0.1384
 136       4.848e+00      -1.673e+01       9.736e-01          -0.081           0.997           0.018       1.303e-02         -0.2012
 137       4.784e+00      -1.673e+01       9.736e-01          -0.081           0.997           0.018       9.544e-03         -0.3082
 138       4.739e+00      -1.673e+01       9.736e-01          -0.081           0.997           0.018       5.822e-03         -0.5392
 139       4.714e+00      -1.674e+01       9.736e-01          -0.081           0.997           0.018       1.957e-03         -1.3293
Strip 8
 140       6.325e+00      -1.660e+01       7.833e-01          -0.081           0.997           0.018       1.957e-03         -0.0027
 141       6.310e+00      -1.660e+01       7.833e-01          -0.081           0.997           0.018       5.822e-03         -0.0047
 142       6.275e+00      -1.661e+01       7.833e-01          -0.081           0.997           0.018       9.544e-03         -0.0069
 143       6.220e+00      -1.661e+01       7.833e-01          -0.081           0.997           0.018       1.303e-02         -0.0091
 144       6.148e+00      -1.662e+01       7.833e-01          -0.081           0.997           0.018       1.620e-02         -0.0113
 145       6.059e+00      -1.662e+01       7.833e-01          -0.081           0.997           0.018       1.896e-02         -0.0135
 146       5.957e+00      -1.663e+01       7.833e-01          -0.081           0.997           0.018       2.126e-02         -0.0152
 147       5.843e+00      -1.664e+01       7.833e-01          -0.081           0.997           0.018       2.304e-02         -0.0165
 148       5.721e+00      -1.665e+01       7.833e-01          -0.081           0.997           0.018       2.425e-02         -0.0171
 149       5.593e+00      -1.666e+01       7.833e-01          -0.081           0.997           0.018       2.486e-02         -0.0174
 150       5.463e+00      -1.667e+01       7.833e-01          -0.081           0.997           0.018       2.486e-02         -0.0183
 151       5.334e+00      -1.668e+01       7.833e-01          -0.081           0.997           0.018       2.425e-02         -0.0212
 152       5.208e+00      -1.669e+01       7.833e-01          -0.081           0.997           0.018       2.304e-02         -0.0281
 153       5.090e+00      -1.670e+01       7.833e-01          -0.081           0.997           0.018       2.126e-02         -0.0410
 154       4.982e+00      -1.671e+01       7.833e-01          -0.081           0.997           0.018       1.896e-02         -0.0627
 155       4.886e+00      -1.672e+01       7.833e-01          -0.081           0.997           0.018       1.620e-02         -0.0966
 156       4.805e+00      -1.673e+01       7.833e-01          -0.081           0.997           0.018       1.303e-02         -0.1497
 157       4.742e+00      -1.673e+01       7.833e-01          -0.081           0.997           0.018       9.544e-03         -0.2397
 158       4.696e+00      -1.673e+01       7.833e-01          -0.081           0.997           0.018       5.822e-03         -0.4309
 159       4.671e+00      -1.674e+01       7.833e-01          -0.081           0.997           0.018       1.957e-03         -1.0745
Strip 9
 160       6.282e+00      -1.660e+01       5.930e-01          -0.081           0.997           0.018       1.957e-03         -0.0029
 161       6.267e+00      -1.660e+01       5.930e-01          -0.081           0.997           0.018       5.822e-03         -0.0051
 162       6.232e+00      -1.661e+01       5.930e-01          -0.081           0.997           0.018       9.544e-03         -0.0076
 163       6.177e+00      -1.661e+01       5.930e-01          -0.081           0.997           0.018       1.303e-02         -0.0102
 164       6.105e+00      -1.662e+01       5.930e-01          -0.081           0.997           0.018       1.620e-02         -0.0128
 165       6.016e+00      -1.662e+01       5.930e-01          -0.081           0.997           0.018       1.896e-02         -0.0150
 166       5.914e+00      -1.663e+01       5.930e-01          -0.081           0.997           0.018       2.126e-02         -0.0162
 167       5.800e+00      -1.664e+01       5.930e-01          -0.081           0.997           0.018       2.304e-02         -0.0156
 168       5.678e+00      -1.665e+01       5.930e-01          -0.081           0.997           0.018       2.425e-02         -0.0128
 169       5.550e+00      -1.666e+01       5.930e-01          -0.081           0.997           0.018       2.486e-02         -0.0080
 170       5.420e+00      -1.667e+01       5.930e-01          -0.081           0.997           0.018       2.486e-02         -0.0022
 171       5.291e+00      -1.668e+01       5.930e-01          -0.081           0.997           0.018       2.425e-02          0.0027
 172       5.165e+00      -1.669e+01       5.930e-01          -0.081           0.997           0.018       2.304e-02          0.0043
 173       5.047e+00      -1.670e+01       5.930e-01          -0.081           0.997           0.018       2.126e-02         -0.0002
 174       4.939e+00      -1.671e+01       5.930e-01          -0.081           0.997           0.018       1.896e-02         -0.0135
 175       4.843e+00      -1.672e+01       5.930e-01          -0.081           0.997           0.018       1.620e-02         -0.0388
 176       4.762e+00      -1.673e+01       5.930e-01          -0.081           0.997           0.018       1.303e-02         -0.0805
 177       4.699e+00      -1.673e+01       5.930e-01          -0.081           0.997           0.018       9.544e-03         -0.1505
 178       4.653e+00      -1.673e+01       5.930e-01          -0.081           0.997           0.018       5.822e-03         -0.2931
 179       4.628e+00      -1.674e+01       5.930e-01          -0.081           0.997           0.018       1.957e-03         -0.7537
Strip 10
 180       6.239e+00      -1.660e+01       4.027e-01          -0.081           0.997           0.018       1.957e-03         -0.0037
 181       6.224e+00      -1.660e+01       4.027e-01          -0.081           0.997           0.018       5.822e-03         -0.0066
 182       6.189e+00      -1.661e+01       4.027e-01          -0.081           0.997           0.018       9.544e-03         -0.0101
 183       6.134e+00      -1.661e+01       4.027e-01          -0.081           0.997           0.018       1.303e-02         -0.0142
 184       6.062e+00      -1.662e+01       4.027e-01          -0.081           0.997           0.018       1.620e-02         -0.0186
 185       5.973e+00      -1.662e+01       4.027e-01          -0.081           0.997           0.018       1.896e-02         -0.0223
 186       5.871e+00      -1.663e+01       4.027e-01          -0.081           0.997           0.018       2.126e-02         -0.0236
 187       5.757e+00      -1.664e+01       4.027e-01          -0.081           0.997           0.018       2.304e-02         -0.0206
 188       5.635e+00      -1.665e+01       4.027e-01          -0.081           0.997           0.018       2.425e-02         -0.0123
 189       5.507e+00      -1.666e+01       4.027e-01          -0.081           0.997           0.018       2.486e-02          0.0006
 190       5.377e+00      -1.667e+01       4.027e-01          -0.081           0.997           0.018       2.486e-02          0.0167
 191       5.248e+00      -1.668e+01       4.027e-01          -0.081           0.997           0.018       2.425e-02          0.0338
 192       5.122e+00      -1.669e+01       4.027e-01          -0.081           0.997           0.018       2.304e-02          0.0488
 193       5.004e+00      -1.670e+01       4.027e-01          -0.081           0.997           0.018       2.126e-02          0.0582
 194       4.896e+00      -1.671e+01       4.027e-01          -0.081           0.997           0.018       1.896e-02          0.0577
 195       4.800e+00      -1.672e+01       4.027e-01          -0.081           0.997           0.018       1.620e-02          0.0433
 196       4.719e+00      -1.673e+01       4.027e-01          -0.081           0.997           0.018       1.303e-02          0.0126
 197       4.656e+00      -1.673e+01       4.027e-01          -0.081           0.997           0.018       9.544e-03         -0.0379
 198       4.611e+00      -1.673e+01       4.027e-01          -0.081           0.997           0.018       5.822e-03         -0.1281
 199       4.585e+00      -1.674e+01       4.027e-01          -0.081           0.997           0.018       1.957e-03         -0.3789
Strip 11
 200       6.210e+00      -1.661e+01       2.849e-01          -0.080           0.991          -0.104       4.665e-04         -0.0122
 201       6.195e+00      -1.661e+01       2.848e-01          -0.080           0.991          -0.103       1.399e-03         -0.0169
 202       6.159e+00      -1.661e+01       2.845e-01          -0.080           0.992          -0.103       2.327e-03         -0.0230
 203       6.105e+00      -1.661e+01       2.840e-01          -0.079           0.992          -0.101       3.243e-03         -0.0312
 204       6.032e+00      -1.662e+01       2.835e-01          -0.078           0.992          -0.096       4.125e-03         -0.0402
 205       5.944e+00      -1.663e+01       2.829e-01          -0.077           0.993          -0.087       4.941e-03         -0.0473
 206       5.842e+00      -1.663e+01       2.824e-01          -0.076           0.994          -0.072       5.651e-03         -0.0489
 207       5.728e+00      -1.664e+01       2.819e-01          -0.075           0.996          -0.051       6.219e-03         -0.0419
 208       5.606e+00      -1.665e+01       2.816e-01          -0.075           0.997          -0.024       6.620e-03         -0.0270
 209       5.478e+00      -1.666e+01       2.814e-01          -0.074           0.997           0.006       6.847e-03         -0.0047
 210       5.348e+00      -1.667e+01       2.811e-01          -0.074           0.997           0.038       6.908e-03          0.0200
 211       5.218e+00      -1.668e+01       2.809e-01          -0.074           0.995           0.069       6.804e-03          0.0512
 212       5.093e+00      -1.669e+01       2.807e-01          -0.075           0.993           0.096       6.540e-03          0.0800
 213       4.975e+00      -1.670e+01       2.804e-01          -0.076           0.990           0.117       6.123e-03          0.1110
 214       4.866e+00      -1.671e+01       2.800e-01          -0.078           0.988           0.131       5.554e-03          0.1356
 215       4.770e+00      -1.672e+01       2.794e-01          -0.081           0.988           0.133       4.847e-03          0.1442
 216       4.690e+00      -1.672e+01       2.787e-01          -0.087           0.988           0.125       4.002e-03          0.1299
 217       4.626e+00      -1.673e+01       2.778e-01          -0.093           0.990           0.108       3.015e-03          0.0937
 218       4.581e+00      -1.673e+01       2.768e-01          -0.108           0.990           0.087       1.891e-03         -0.0179
 219       4.556e+00      -1.673e+01       2.759e-01          -0.132           0.989           0.071       6.487e-04         -0.3627
Strip 12
 220       6.194e+00      -1.661e+01       2.397e-01          -0.079           0.991          -0.104       4.635e-04         -0.0208
 221       6.179e+00      -1.661e+01       2.393e-01          -0.079           0.991          -0.104       1.390e-03         -0.0282
 222       6.143e+00      -1.662e+01       2.384e-01          -0.079           0.992          -0.103       2.313e-03         -0.0373
 223       6.089e+00      -1.662e+01       2.370e-01          -0.077           0.992          -0.101       3.226e-03         -0.0486
 224       6.017e+00      -1.663e+01       2.354e-01          -0.075           0.992          -0.097       4.106e-03         -0.0603
 225       5.928e+00      -1.663e+01       2.337e-01          -0.072           0.993          -0.089       4.922e-03         -0.0685
 226       5.826e+00      -1.664e+01       2.321e-01          -0.068           0.995          -0.075       5.634e-03         -0.0684
 227       5.712e+00      -1.665e+01       2.308e-01          -0.065           0.996          -0.055       6.205e-03         -0.0561
 228       5.590e+00      -1.666e+01       2.297e-01          -0.063           0.998          -0.028       6.608e-03         -0.0346
 229       5.462e+00      -1.666e+01       2.290e-01          -0.061           0.998           0.002       6.837e-03         -0.0040
 230       5.332e+00      -1.667e+01       2.284e-01          -0.062           0.998           0.034       6.896e-03          0.0270
 231       5.202e+00      -1.668e+01       2.277e-01          -0.062           0.996           0.065       6.791e-03          0.0706
 232       5.077e+00      -1.669e+01       2.270e-01          -0.065           0.994           0.093       6.525e-03          0.1094
 233       4.958e+00      -1.669e+01       2.261e-01          -0.067           0.991           0.114       6.106e-03          0.1604
 234       4.850e+00      -1.670e+01       2.249e-01          -0.073           0.989           0.129       5.535e-03          0.2080
 235       4.754e+00      -1.671e+01       2.232e-01          -0.084           0.987           0.134       4.824e-03          0.2376
 236       4.674e+00      -1.672e+01       2.209e-01          -0.100           0.987           0.128       3.978e-03          0.2362
 237       4.610e+00      -1.672e+01       2.182e-01          -0.119           0.986           0.115       2.992e-03          0.2051
 238       4.565e+00      -1.673e+01       2.153e-01          -0.165           0.981           0.101       1.872e-03         -0.0117
 239       4.540e+00      -1.673e+01       2.126e-01          -0.234           0.967           0.096       6.420e-04         -0.7898
Strip 13
 240       6.178e+00      -1.662e+01       1.945e-01          -0.079           0.991          -0.104       4.605e-04         -0.0306
 241       6.163e+00      -1.662e+01       1.938e-01          -0.079           0.991          -0.104       1.381e-03         -0.0404
 242       6.128e+00      -1.662e+01       1.923e-01          -0.078           0.992          -0.103       2.299e-03         -0.0521
 243       6.073e+00      -1.663e+01       1.900e-01          -0.075           0.992          -0.102       3.208e-03         -0.0670
 244       6.001e+00      -1.663e+01       1.873e-01          -0.071           0.993          -0.099       4.086e-03         -0.0811
 245       5.912e+00      -1.664e+01       1.845e-01          -0.066           0.994          -0.091       4.903e-03         -0.0894
 246       5.810e+00      -1.664e+01       1.818e-01          -0.060           0.995          -0.078       5.618e-03         -0.0867
 247       5.696e+00      -1.665e+01       1.796e-01          -0.054           0.997          -0.058       6.192e-03         -0.0682
 248       5.574e+00      -1.666e+01       1.779e-01          -0.050           0.998          -0.032       6.597e-03         -0.0397
 249       5.446e+00      -1.666e+01       1.766e-01          -0.048           0.999          -0.002       6.827e-03         -0.0008
 250       5.316e+00      -1.667e+01       1.756e-01          -0.049           0.998           0.031       6.885e-03          0.0361
 251       5.186e+00      -1.668e+01       1.745e-01          -0.049           0.997           0.061       6.780e-03          0.0920
 252       5.061e+00      -1.668e+01       1.733e-01          -0.054           0.995           0.090       6.510e-03          0.1406
 253       4.942e+00      -1.669e+01       1.717e-01          -0.058           0.992           0.112       6.091e-03          0.2123
 254       4.834e+00      -1.670e+01       1.698e-01          -0.069           0.989           0.128       5.516e-03          0.2841
 255       4.738e+00      -1.670e+01       1.670e-01          -0.087           0.987           0.135       4.802e-03          0.3353
 256       4.658e+00      -1.671e+01       1.632e-01          -0.113           0.985           0.132       3.954e-03          0.3438
 257       4.594e+00      -1.672e+01       1.586e-01          -0.146           0.982           0.122       2.971e-03          0.3076
 258       4.549e+00      -1.672e+01       1.538e-01          -0.221           0.968           0.115       1.859e-03         -0.0271
 259       4.524e+00      -1.673e+01       1.493e-01          -0.335           0.934           0.120       6.428e-04         -1.2243
Strip 14
 260       6.162e+00      -1.662e+01       1.492e-01          -0.078           0.991          -0.104       4.576e-04         -0.0408
 261       6.147e+00      -1.662e+01       1.483e-01          -0.078           0.992          -0.104       1.372e-03         -0.0516
 262       6.112e+00      -1.663e+01       1.462e-01          -0.077           0.992          -0.104       2.285e-03         -0.0665
 263       6.057e+00      -1.663e+01       1.430e-01          -0.073           0.992          -0.103       3.190e-03         -0.0859
 264       5.985e+00      -1.664e+01       1.393e-01          -0.067           0.993          -0.100       4.067e-03         -0.1021
 265       5.896e+00      -1.664e+01       1.353e-01          -0.059           0.994          -0.093       4.884e-03         -0.1096
 266       5.794e+00      -1.665e+01       1.315e-01          -0.052           0.995          -0.080       5.602e-03         -0.1034
 267       5.680e+00      -1.666e+01       1.284e-01          -0.044           0.997          -0.061       6.180e-03         -0.0783
 268       5.558e+00      -1.666e+01       1.260e-01          -0.038           0.999          -0.036       6.588e-03         -0.0427
 269       5.430e+00      -1.667e+01       1.243e-01          -0.035           0.999          -0.006       6.819e-03          0.0046
 270       5.300e+00      -1.667e+01       1.228e-01          -0.036           0.999           0.027       6.875e-03          0.0469
 271       5.170e+00      -1.668e+01       1.213e-01          -0.036           0.998           0.057       6.770e-03          0.1148
 272       5.045e+00      -1.668e+01       1.197e-01          -0.043           0.995           0.087       6.496e-03          0.1726
 273       4.926e+00      -1.668e+01       1.174e-01          -0.049           0.993           0.109       6.075e-03          0.2651
 274       4.818e+00      -1.669e+01       1.147e-01          -0.064           0.990           0.127       5.497e-03          0.3624
 275       4.722e+00      -1.670e+01       1.107e-01          -0.090           0.987           0.136       4.780e-03          0.4371
 276       4.642e+00      -1.670e+01       1.054e-01          -0.126           0.983           0.135       3.932e-03          0.4579
 277       4.578e+00      -1.671e+01       9.908e-02          -0.172           0.977           0.128       2.953e-03          0.4164
 278       4.533e+00      -1.672e+01       9.229e-02          -0.278           0.952           0.129       1.853e-03         -0.0384
 279       4.508e+00      -1.673e+01       8.595e-02          -0.431           0.891           0.142       6.512e-04         -1.5838
Strip 15
 280       6.146e+00      -1.663e+01       1.040e-01          -0.078           0.991          -0.104       4.546e-04         -0.0434
 281       6.131e+00      -1.663e+01       1.028e-01          -0.077           0.992          -0.104       1.364e-03         -0.0565
 282       6.096e+00      -1.663e+01       1.001e-01          -0.075           0.992          -0.104       2.271e-03         -0.0799
 283       6.041e+00      -1.664e+01       9.604e-02          -0.070           0.992          -0.104       3.172e-03         -0.1047
 284       5.969e+00      -1.664e+01       9.117e-02          -0.063           0.993          -0.101       4.048e-03         -0.1215
 285       5.880e+00      -1.665e+01       8.603e-02          -0.053           0.994          -0.095       4.866e-03         -0.1270
 286       5.778e+00      -1.665e+01       8.120e-02          -0.043           0.996          -0.083       5.586e-03         -0.1169
 287       5.664e+00      -1.666e+01       7.718e-02          -0.033           0.997          -0.065       6.168e-03         -0.0854
 288       5.542e+00      -1.666e+01       7.417e-02          -0.026           0.999          -0.039       6.579e-03         -0.0429
 289       5.414e+00      -1.667e+01       7.191e-02          -0.022           1.000          -0.010       6.812e-03          0.0119
 290       5.284e+00      -1.667e+01       7.002e-02          -0.023           0.999           0.023       6.867e-03          0.0596
 291       5.154e+00      -1.667e+01       6.807e-02          -0.023           0.998           0.054       6.761e-03          0.1379
 292       5.029e+00      -1.668e+01       6.598e-02          -0.033           0.996           0.083       6.483e-03          0.2048
 293       4.910e+00      -1.668e+01       6.311e-02          -0.040           0.994           0.107       6.061e-03          0.3163
 294       4.802e+00      -1.668e+01       5.956e-02          -0.059           0.990           0.125       5.478e-03          0.4390
 295       4.706e+00      -1.669e+01       5.452e-02          -0.093           0.986           0.137       4.757e-03          0.5398
 296       4.625e+00      -1.670e+01       4.769e-02          -0.140           0.980           0.139       3.910e-03          0.5813
 297       4.562e+00      -1.671e+01       3.952e-02          -0.199           0.971           0.135       2.937e-03          0.5510
 298       4.517e+00      -1.672e+01       3.079e-02          -0.333           0.932           0.142       1.854e-03         -0.0142
 299       4.492e+00      -1.672e+01       2.264e-02          -0.518           0.840           0.162       6.669e-04         -1.7691
Strip 16
 300       6.136e+00      -1.663e+01       8.129e-02          -0.086          -0.011           0.996       1.440e-04          0.0714
 301       6.121e+00      -1.663e+01       7.996e-02          -0.085          -0.011           0.996       4.288e-04         -0.0292
 302       6.086e+00      -1.663e+01       7.693e-02          -0.083          -0.011           0.996       7.038e-04         -0.0713
 303       6.031e+00      -1.663e+01       7.245e-02          -0.077          -0.010           0.997       9.618e-04         -0.1031
 304       5.959e+00      -1.664e+01       6.704e-02          -0.067          -0.008           0.998       1.196e-03         -0.1236
 305       5.871e+00      -1.665e+01       6.133e-02          -0.056          -0.005           0.998       1.400e-03         -0.1308
 306       5.768e+00      -1.665e+01       5.598e-02          -0.042          -0.003           0.999       1.569e-03         -0.1213
 307       5.655e+00      -1.665e+01       5.153e-02          -0.030          -0.001           1.000       1.698e-03         -0.0903
 308       5.532e+00      -1.666e+01       4.819e-02          -0.021           0.001           1.000       1.787e-03         -0.0423
 309       5.404e+00      -1.666e+01       4.571e-02          -0.016           0.001           1.000       1.832e-03          0.0177
 310       5.274e+00      -1.666e+01       4.364e-02          -0.017          -0.001           1.000       1.835e-03          0.0781
 311       5.144e+00      -1.667e+01       4.150e-02          -0.016          -0.002           1.000       1.792e-03          0.1571
 312       5.019e+00      -1.667e+01       3.920e-02          -0.025          -0.006           1.000       1.709e-03          0.2405
 313       4.900e+00      -1.667e+01       3.603e-02          -0.032          -0.009           0.999       1.583e-03          0.3533
 314       4.792e+00      -1.667e+01       3.210e-02          -0.050          -0.015           0.999       1.423e-03          0.4877
 315       4.696e+00      -1.668e+01       2.651e-02          -0.082          -0.024           0.996       1.232e-03          0.6010
 316       4.616e+00      -1.669e+01       1.892e-02          -0.125          -0.037           0.991       1.012e-03          0.6601
 317       4.552e+00      -1.670e+01       9.828e-03          -0.179          -0.051           0.982       7.619e-04          0.6657
 318       4.507e+00      -1.671e+01       1.044e-04          -0.294          -0.082           0.952       4.974e-04          0.2661
 319       4.482e+00      -1.672e+01      -8.968e-03          -0.438          -0.120           0.891       1.881e-04         -0.6576
Strip 17
 320       6.129e+00      -1.660e+01       8.094e-02          -0.086          -0.011           0.996       4.293e-04          0.0054
 321       6.114e+00      -1.660e+01       7.961e-02          -0.085          -0.011           0.996       1.279e-03         -0.0298
 322       6.078e+00      -1.660e+01       7.659e-02          -0.083          -0.011           0.997       2.099e-03         -0.0742
 323       6.024e+00      -1.661e+01       7.213e-02          -0.077          -0.009           0.997       2.868e-03         -0.1075
 324       5.951e+00      -1.661e+01       6.673e-02          -0.067          -0.008           0.998       3.566e-03         -0.1275
 325       5.863e+00      -1.662e+01       6.105e-02          -0.055          -0.005           0.998       4.175e-03         -0.1329
 326       5.761e+00      -1.662e+01       5.573e-02          -0.042          -0.003           0.999       4.679e-03         -0.1201
 327       5.647e+00      -1.663e+01       5.131e-02          -0.029          -0.000           1.000       5.065e-03         -0.0836
 328       5.525e+00      -1.663e+01       4.801e-02          -0.020           0.001           1.000       5.329e-03         -0.0326
 329       5.397e+00      -1.663e+01       4.556e-02          -0.015           0.001           1.000       5.465e-03          0.0311
 330       5.266e+00      -1.664e+01       4.353e-02          -0.016          -0.001           1.000       5.473e-03          0.0906
 331       5.137e+00      -1.664e+01       4.143e-02          -0.016          -0.002           1.000       5.345e-03          0.1763
 332       5.011e+00      -1.664e+01       3.916e-02          -0.025          -0.006           1.000       5.098e-03          0.2575
 333       4.893e+00      -1.664e+01       3.603e-02          -0.031          -0.009           0.999       4.722e-03          0.3777
 334       4.784e+00      -1.665e+01       3.213e-02          -0.050          -0.015           0.999       4.244e-03          0.5129
 335       4.689e+00      -1.665e+01       2.656e-02          -0.082          -0.024           0.996       3.674e-03          0.6261
 336       4.608e+00      -1.666e+01       1.899e-02          -0.125          -0.036           0.991       3.016e-03          0.6901
 337       4.544e+00      -1.667e+01       9.924e-03          -0.179          -0.051           0.983       2.271e-03          0.7394
 338       4.500e+00      -1.668e+01       2.134e-04          -0.294          -0.082           0.952       1.482e-03          0.5270
 339       4.474e+00      -1.669e+01      -8.852e-03          -0.439          -0.120           0.890       5.602e-04         -0.2362
Strip 18
 340       6.114e+00      -1.654e+01       8.023e-02          -0.085          -0.011           0.996       7.069e-04         -0.0111
 341       6.099e+00      -1.655e+01       7.892e-02          -0.085          -0.011           0.996       2.105e-03         -0.0360
 342       6.063e+00      -1.655e+01       7.592e-02          -0.082          -0.010           0.997       3.456e-03         -0.0751
 343       6.009e+00      -1.655e+01       7.148e-02          -0.076          -0.009           0.997       4.722e-03         -0.1080
 344       5.936e+00      -1.656e+01       6.613e-02          -0.066          -0.007           0.998       5.873e-03         -0.1275
 345       5.848e+00      -1.656e+01       6.050e-02          -0.055          -0.005           0.998       6.876e-03         -0.1316
 346       5.746e+00      -1.657e+01       5.523e-02          -0.042          -0.003           0.999       7.707e-03         -0.1165
 347       5.632e+00      -1.657e+01       5.088e-02          -0.029          -0.000           1.000       8.344e-03         -0.0772
 348       5.510e+00      -1.658e+01       4.765e-02          -0.020           0.001           1.000       8.779e-03         -0.0240
 349       5.382e+00      -1.658e+01       4.527e-02          -0.015           0.001           1.000       9.003e-03          0.0422
 350       5.251e+00      -1.658e+01       4.331e-02          -0.016          -0.001           1.000       9.017e-03          0.1037
 351       5.122e+00      -1.658e+01       4.128e-02          -0.015          -0.002           1.000       8.805e-03          0.1933
 352       4.996e+00      -1.658e+01       3.909e-02          -0.024          -0.006           1.000       8.398e-03          0.2761
 353       4.878e+00      -1.659e+01       3.602e-02          -0.031          -0.008           0.999       7.779e-03          0.3990
 354       4.769e+00      -1.659e+01       3.218e-02          -0.049          -0.015           0.999       6.990e-03          0.5325
 355       4.673e+00      -1.660e+01       2.667e-02          -0.081          -0.024           0.996       6.050e-03          0.6475
 356       4.593e+00      -1.660e+01       1.915e-02          -0.125          -0.036           0.992       4.964e-03          0.7353
 357       4.529e+00      -1.661e+01       1.011e-02          -0.179          -0.051           0.983       3.736e-03          0.8604
 358       4.484e+00      -1.662e+01       4.295e-04          -0.294          -0.082           0.952       2.436e-03          0.7378
 359       4.459e+00      -1.663e+01      -8.621e-03          -0.440          -0.120           0.890       9.199e-04          0.1697
Strip 19
 360       6.092e+00      -1.646e+01       7.919e-02          -0.084          -0.010           0.996       9.716e-04         -0.0181
 361       6.076e+00      -1.647e+01       7.789e-02          -0.084          -0.010           0.996       2.893e-03         -0.0411
 362       6.041e+00      -1.647e+01       7.492e-02          -0.081          -0.010           0.997       4.750e-03         -0.0766
 363       5.987e+00      -1.647e+01       7.053e-02          -0.075          -0.009           0.997       6.492e-03         -0.1073
 364       5.914e+00      -1.648e+01       6.523e-02          -0.066          -0.007           0.998       8.074e-03         -0.1257
 365       5.826e+00      -1.648e+01       5.968e-02          -0.054          -0.005           0.999       9.455e-03         -0.1286
 366       5.723e+00      -1.649e+01       5.450e-02          -0.041          -0.002           0.999       1.060e-02         -0.1119
 367       5.610e+00      -1.649e+01       5.024e-02          -0.028          -0.000           1.000       1.148e-02         -0.0704
 368       5.487e+00      -1.649e+01       4.711e-02          -0.019           0.001           1.000       1.208e-02         -0.0151
 369       5.359e+00      -1.650e+01       4.484e-02          -0.014           0.001           1.000       1.239e-02          0.0539
 370       5.229e+00      -1.650e+01       4.299e-02          -0.015          -0.000           1.000       1.240e-02          0.1180
 371       5.099e+00      -1.650e+01       4.107e-02          -0.014          -0.002           1.000       1.211e-02          0.2116
 372       4.974e+00      -1.650e+01       3.898e-02          -0.023          -0.005           1.000       1.155e-02          0.2969
 373       4.855e+00      -1.650e+01       3.601e-02          -0.030          -0.008           1.000       1.070e-02          0.4230
 374       4.747e+00      -1.651e+01       3.226e-02          -0.049          -0.014           0.999       9.613e-03          0.5600
 375       4.651e+00      -1.651e+01       2.683e-02          -0.081          -0.024           0.996       8.316e-03          0.6871
 376       4.571e+00      -1.652e+01       1.937e-02          -0.124          -0.036           0.992       6.820e-03          0.8033
 377       4.507e+00      -1.653e+01       1.040e-02          -0.178          -0.051           0.983       5.130e-03          0.9676
 378       4.462e+00      -1.654e+01       7.490e-04          -0.294          -0.082           0.952       3.340e-03          0.8998
 379       4.437e+00      -1.655e+01      -8.280e-03          -0.442          -0.121           0.889       1.260e-03          0.5129
Strip 20
 380       6.063e+00      -1.636e+01       7.783e-02          -0.083          -0.010           0.996       1.219e-03         -0.0223
 381       6.047e+00      -1.636e+01       7.654e-02          -0.083          -0.010           0.997       3.629e-03         -0.0454
 382       6.012e+00      -1.636e+01       7.361e-02          -0.080          -0.010           0.997       5.958e-03         -0.0790
 383       5.958e+00      -1.637e+01       6.928e-02          -0.074          -0.009           0.997       8.144e-03         -0.1077
 384       5.885e+00      -1.637e+01       6.407e-02          -0.065          -0.007           0.998       1.013e-02         -0.1244
 385       5.797e+00      -1.638e+01       5.861e-02          -0.053          -0.005           0.999       1.187e-02         -0.1257
 386       5.694e+00      -1.638e+01       5.354e-02          -0.040          -0.002           0.999       1.330e-02         -0.1073
 387       5.581e+00      -1.638e+01       4.940e-02          -0.027           0.000           1.000       1.441e-02         -0.0636
 388       5.458e+00      -1.639e+01       4.641e-02          -0.018           0.001           1.000       1.517e-02         -0.0058
 389       5.330e+00      -1.639e+01       4.428e-02          -0.013           0.001           1.000       1.555e-02          0.0662
 390       5.200e+00      -1.639e+01       4.257e-02          -0.014          -0.000           1.000       1.558e-02          0.1335
 391       5.070e+00      -1.639e+01       4.079e-02          -0.013          -0.001           1.000       1.521e-02          0.2314
 392       4.945e+00      -1.639e+01       3.884e-02          -0.022          -0.005           1.000       1.450e-02          0.3205
 393       4.826e+00      -1.640e+01       3.599e-02          -0.029          -0.008           1.000       1.343e-02          0.4517
 394       4.718e+00      -1.640e+01       3.237e-02          -0.048          -0.014           0.999       1.207e-02          0.5963
 395       4.622e+00      -1.641e+01       2.704e-02          -0.080          -0.024           0.997       1.043e-02          0.7361
 396       4.541e+00      -1.641e+01       1.967e-02          -0.123          -0.036           0.992       8.549e-03          0.8697
 397       4.478e+00      -1.642e+01       1.076e-02          -0.178          -0.051           0.983       6.425e-03          1.0575
 398       4.433e+00      -1.643e+01       1.166e-03          -0.295          -0.082           0.952       4.177e-03          1.0339
 399       4.408e+00      -1.643e+01      -7.834e-03          -0.444          -0.121           0.888       1.572e-03          0.7979
Strip 21
 400       6.027e+00      -1.623e+01       7.617e-02          -0.082          -0.010           0.997       1.444e-03         -0.0255
 401       6.012e+00      -1.623e+01       7.491e-02          -0.081          -0.010           0.997       4.300e-03         -0.0492
 402       5.977e+00      -1.624e+01       7.202e-02          -0.079          -0.010           0.997       7.059e-03         -0.0820
 403       5.922e+00      -1.624e+01       6.776e-02          -0.073          -0.008           0.997       9.651e-03         -0.1092
 404       5.850e+00      -1.624e+01       6.265e-02          -0.063          -0.007           0.998       1.201e-02         -0.1244
 405       5.761e+00      -1.625e+01       5.731e-02          -0.052          -0.004           0.999       1.407e-02         -0.1240
 406       5.659e+00      -1.625e+01       5.237e-02          -0.038          -0.002           0.999       1.578e-02         -0.1037
 407       5.545e+00      -1.626e+01       4.839e-02          -0.025           0.001           1.000       1.709e-02         -0.0575
 408       5.423e+00      -1.626e+01       4.556e-02          -0.017           0.002           1.000       1.799e-02          0.0030
 409       5.295e+00      -1.626e+01       4.360e-02          -0.012           0.002           1.000       1.845e-02          0.0782
 410       5.164e+00      -1.626e+01       4.206e-02          -0.013           0.000           1.000       1.848e-02          0.1491
 411       5.035e+00      -1.626e+01       4.045e-02          -0.012          -0.001           1.000       1.805e-02          0.2514
 412       4.909e+00      -1.626e+01       3.866e-02          -0.021          -0.005           1.000       1.721e-02          0.3452
 413       4.791e+00      -1.627e+01       3.598e-02          -0.028          -0.008           1.000       1.593e-02          0.4825
 414       4.682e+00      -1.627e+01       3.249e-02          -0.046          -0.014           0.999       1.430e-02          0.6343
 415       4.586e+00      -1.627e+01       2.730e-02          -0.078          -0.023           0.997       1.236e-02          0.7831
 416       4.506e+00      -1.628e+01       2.003e-02          -0.122          -0.036           0.992       1.012e-02          0.9282
 417       4.442e+00      -1.629e+01       1.121e-02          -0.177          -0.051           0.983       7.599e-03          1.1345
 418       4.397e+00      -1.629e+01       1.675e-03          -0.295          -0.082           0.952       4.929e-03          1.1484
 419       4.372e+00      -1.630e+01      -7.291e-03          -0.446          -0.122           0.887       1.852e-03          1.0363
Strip 22
 420       5.987e+00      -1.609e+01       7.425e-02          -0.081          -0.009           0.997       1.643e-03         -0.0282
 421       5.971e+00      -1.609e+01       7.300e-02          -0.080          -0.009           0.997       4.893e-03         -0.0528
 422       5.936e+00      -1.609e+01       7.018e-02          -0.078          -0.009           0.997       8.034e-03         -0.0856
 423       5.881e+00      -1.609e+01       6.600e-02          -0.071          -0.008           0.997       1.098e-02         -0.1121
 424       5.809e+00      -1.609e+01       6.100e-02          -0.062          -0.006           0.998       1.367e-02         -0.1261
 425       5.720e+00      -1.610e+01       5.579e-02          -0.050          -0.004           0.999       1.602e-02         -0.1244
 426       5.618e+00      -1.610e+01       5.102e-02          -0.037          -0.001           0.999       1.797e-02         -0.1022
 427       5.504e+00      -1.610e+01       4.721e-02          -0.024           0.001           1.000       1.948e-02         -0.0538
 428       5.382e+00      -1.611e+01       4.456e-02          -0.015           0.002           1.000       2.051e-02          0.0093
 429       5.254e+00      -1.611e+01       4.280e-02          -0.010           0.002           1.000       2.104e-02          0.0877
 430       5.123e+00      -1.611e+01       4.147e-02          -0.011           0.001           1.000       2.107e-02          0.1623
 431       4.994e+00      -1.611e+01       4.006e-02          -0.011          -0.001           1.000       2.057e-02          0.2691
 432       4.868e+00      -1.611e+01       3.846e-02          -0.019          -0.004           1.000       1.961e-02          0.3677
 433       4.750e+00      -1.612e+01       3.596e-02          -0.026          -0.007           1.000       1.815e-02          0.5104
 434       4.641e+00      -1.612e+01       3.264e-02          -0.045          -0.013           0.999       1.629e-02          0.6682
 435       4.545e+00      -1.612e+01       2.759e-02          -0.077          -0.023           0.997       1.407e-02          0.8237
 436       4.465e+00      -1.613e+01       2.045e-02          -0.121          -0.035           0.992       1.151e-02          0.9783
 437       4.401e+00      -1.613e+01       1.173e-02          -0.177          -0.051           0.983       8.630e-03          1.2008
 438       4.356e+00      -1.614e+01       2.265e-03          -0.296          -0.082           0.952       5.584e-03          1.2465
 439       4.331e+00      -1.614e+01      -6.660e-03          -0.449          -0.123           0.885       2.092e-03          1.2348
Strip 23
 440       5.941e+00      -1.592e+01       7.209e-02          -0.079          -0.009           0.997       1.813e-03         -0.0308
 441       5.925e+00      -1.592e+01       7.087e-02          -0.078          -0.009           0.997       5.400e-03         -0.0569
 442       5.890e+00      -1.592e+01       6.810e-02          -0.076          -0.009           0.997       8.866e-03         -0.0904
 443       5.835e+00      -1.592e+01       6.403e-02          -0.070          -0.008           0.998       1.212e-02         -0.1170
 444       5.763e+00      -1.593e+01       5.915e-02          -0.060          -0.006           0.998       1.509e-02         -0.1308
 445       5.674e+00      -1.593e+01       5.409e-02          -0.048          -0.003           0.999       1.769e-02         -0.1284
 446       5.572e+00      -1.593e+01       4.950e-02          -0.035          -0.001           0.999       1.986e-02         -0.1052
 447       5.458e+00      -1.594e+01       4.588e-02          -0.022           0.001           1.000       2.152e-02         -0.0551
 448       5.336e+00      -1.594e+01       4.345e-02          -0.013           0.003           1.000       2.267e-02          0.0103
 449       5.208e+00      -1.594e+01       4.191e-02          -0.008           0.003           1.000       2.326e-02          0.0918
 450       5.077e+00      -1.594e+01       4.080e-02          -0.009           0.001           1.000       2.329e-02          0.1702
 451       4.947e+00      -1.594e+01       3.961e-02          -0.009          -0.000           1.000       2.274e-02          0.2815
 452       4.822e+00      -1.594e+01       3.823e-02          -0.018          -0.004           1.000       2.167e-02          0.3847
 453       4.703e+00      -1.594e+01       3.594e-02          -0.024          -0.007           1.000       2.006e-02          0.5324
 454       4.595e+00      -1.595e+01       3.281e-02          -0.043          -0.013           0.999       1.800e-02          0.6954
 455       4.499e+00      -1.595e+01       2.792e-02          -0.076          -0.023           0.997       1.553e-02          0.8571
 456       4.418e+00      -1.595e+01       2.093e-02          -0.120          -0.035           0.992       1.269e-02          1.0202
 457       4.355e+00      -1.596e+01       1.231e-02          -0.176          -0.050           0.983       9.500e-03          1.2576
 458       4.310e+00      -1.596e+01       2.927e-03          -0.297          -0.083           0.951       6.130e-03          1.3303
 459       4.284e+00      -1.597e+01      -5.953e-03          -0.452          -0.123           0.883       2.291e-03          1.3977
Strip 24
 460       5.890e+00      -1.574e+01       6.973e-02          -0.077          -0.008           0.997       1.951e-03         -0.0342
 461       5.875e+00      -1.574e+01       6.854e-02          -0.077          -0.008           0.997       5.810e-03         -0.0625
 462       5.840e+00      -1.574e+01       6.584e-02          -0.074          -0.008           0.997       9.541e-03         -0.0979
 463       5.785e+00      -1.574e+01       6.187e-02          -0.068          -0.007           0.998       1.305e-02         -0.1261
 464       5.713e+00      -1.575e+01       5.713e-02          -0.058          -0.005           0.998       1.625e-02         -0.1411
 465       5.624e+00      -1.575e+01       5.224e-02          -0.046          -0.003           0.999       1.905e-02         -0.1397
 466       5.522e+00      -1.575e+01       4.784e-02          -0.033          -0.000           0.999       2.139e-02         -0.1168
 467       5.408e+00      -1.575e+01       4.444e-02          -0.020           0.002           1.000       2.320e-02         -0.0659
 468       5.285e+00      -1.575e+01       4.224e-02          -0.011           0.003           1.000       2.444e-02          0.0015
 469       5.157e+00      -1.575e+01       4.094e-02          -0.006           0.003           1.000       2.508e-02          0.0863
 470       5.027e+00      -1.576e+01       4.007e-02          -0.007           0.002           1.000       2.511e-02          0.1690
 471       4.897e+00      -1.576e+01       3.913e-02          -0.007           0.000           1.000       2.452e-02          0.2854
 472       4.771e+00      -1.576e+01       3.799e-02          -0.016          -0.003           1.000       2.336e-02          0.3938
 473       4.653e+00      -1.576e+01       3.591e-02          -0.022          -0.006           1.000       2.162e-02          0.5469
 474       4.544e+00      -1.576e+01       3.299e-02          -0.041          -0.012           0.999       1.938e-02          0.7153
 475       4.449e+00      -1.576e+01       2.829e-02          -0.074          -0.022           0.997       1.671e-02          0.8833
 476       4.368e+00      -1.577e+01       2.144e-02          -0.119          -0.035           0.992       1.364e-02          1.0548
 477       4.304e+00      -1.577e+01       1.295e-02          -0.175          -0.050           0.983       1.020e-02          1.3062
 478       4.259e+00      -1.577e+01       3.650e-03          -0.297          -0.083           0.951       6.559e-03          1.4017
 479       4.234e+00      -1.578e+01      -5.181e-03          -0.456          -0.124           0.881       2.443e-03          1.5304
Strip 25
 480       5.837e+00      -1.555e+01       6.722e-02          -0.075          -0.008           0.997       2.054e-03         -0.0395
 481       5.821e+00      -1.555e+01       6.606e-02          -0.075          -0.008           0.997       6.118e-03         -0.0717
 482       5.786e+00      -1.555e+01       6.343e-02          -0.072          -0.008           0.997       1.005e-02         -0.1113
 483       5.731e+00      -1.555e+01       5.957e-02          -0.066          -0.007           0.998       1.375e-02         -0.1437
 484       5.659e+00      -1.555e+01       5.497e-02          -0.056          -0.005           0.998       1.712e-02         -0.1631
 485       5.570e+00      -1.555e+01       5.026e-02          -0.044          -0.002           0.999       2.009e-02         -0.1656
 486       5.468e+00      -1.555e+01       4.607e-02          -0.031           0.000           1.000       2.256e-02         -0.1453
 487       5.354e+00      -1.556e+01       4.290e-02          -0.018           0.003           1.000       2.447e-02         -0.0948
 488       5.232e+00      -1.556e+01       4.094e-02          -0.009           0.004           1.000       2.579e-02         -0.0249
 489       5.103e+00      -1.556e+01       3.990e-02          -0.004           0.004           1.000       2.647e-02          0.0651
 490       4.973e+00      -1.556e+01       3.930e-02          -0.005           0.002           1.000       2.650e-02          0.1545
 491       4.843e+00      -1.556e+01       3.861e-02          -0.005           0.001           1.000       2.588e-02          0.2783
 492       4.718e+00      -1.556e+01       3.772e-02          -0.014          -0.003           1.000       2.465e-02          0.3938
 493       4.599e+00      -1.556e+01       3.589e-02          -0.020          -0.006           1.000       2.281e-02          0.5536
 494       4.491e+00      -1.556e+01       3.318e-02          -0.039          -0.012           0.999       2.044e-02          0.7287
 495       4.395e+00      -1.556e+01       2.867e-02          -0.072          -0.022           0.997       1.760e-02          0.9038
 496       4.314e+00      -1.557e+01       2.199e-02          -0.117          -0.034           0.993       1.434e-02          1.0842
 497       4.250e+00      -1.557e+01       1.363e-02          -0.174          -0.050           0.983       1.071e-02          1.3490
 498       4.205e+00      -1.557e+01       4.422e-03          -0.298          -0.083           0.951       6.866e-03          1.4649
 499       4.180e+00      -1.557e+01      -4.357e-03          -0.460          -0.125           0.879       2.548e-03          1.6421
Strip 26
 500       5.781e+00      -1.534e+01       6.459e-02          -0.073          -0.007           0.997       2.122e-03         -0.0488
 501       5.765e+00      -1.534e+01       6.346e-02          -0.073          -0.007           0.997       6.320e-03         -0.0884
 502       5.730e+00      -1.535e+01       6.091e-02          -0.070          -0.007           0.997       1.038e-02         -0.1369
 503       5.675e+00      -1.535e+01       5.716e-02          -0.064          -0.006           0.998       1.420e-02         -0.1797
 504       5.603e+00      -1.535e+01       5.272e-02          -0.054          -0.004           0.999       1.770e-02         -0.2105
 505       5.514e+00      -1.535e+01       4.820e-02          -0.042          -0.002           0.999       2.077e-02         -0.2242
 506       5.412e+00      -1.535e+01       4.422e-02          -0.029           0.001           1.000       2.334e-02         -0.2112
 507       5.298e+00      -1.535e+01       4.129e-02          -0.016           0.003           1.000       2.533e-02         -0.1609
 508       5.175e+00      -1.535e+01       3.959e-02          -0.007           0.004           1.000       2.669e-02         -0.0833
 509       5.047e+00      -1.535e+01       3.881e-02          -0.002           0.004           1.000       2.740e-02          0.0192
 510       4.917e+00      -1.535e+01       3.849e-02          -0.003           0.003           1.000       2.744e-02          0.1221
 511       4.787e+00      -1.535e+01       3.807e-02          -0.003           0.002           1.000       2.680e-02          0.2583
 512       4.661e+00      -1.535e+01       3.745e-02          -0.012          -0.002           1.000       2.551e-02          0.3846
 513       4.543e+00      -1.535e+01       3.586e-02          -0.018          -0.005           1.000       2.360e-02          0.5539
 514       4.434e+00      -1.535e+01       3.338e-02          -0.037          -0.011           0.999       2.113e-02          0.7376
 515       4.338e+00      -1.536e+01       2.908e-02          -0.070          -0.021           0.997       1.818e-02          0.9215
 516       4.258e+00      -1.536e+01       2.257e-02          -0.115          -0.034           0.993       1.480e-02          1.1118
 517       4.194e+00      -1.536e+01       1.434e-02          -0.173          -0.050           0.984       1.103e-02          1.3912
 518       4.149e+00      -1.536e+01       5.228e-03          -0.299          -0.083           0.951       7.046e-03          1.5274
 519       4.123e+00      -1.536e+01      -3.495e-03          -0.464          -0.127           0.877       2.606e-03          1.7497
Strip 27
 520       5.723e+00      -1.514e+01       6.189e-02          -0.071          -0.007           0.997       2.153e-03         -0.0638
 521       5.708e+00      -1.514e+01       6.080e-02          -0.071          -0.007           0.997       6.412e-03         -0.1162
 522       5.673e+00      -1.514e+01       5.832e-02          -0.068          -0.007           0.998       1.053e-02         -0.1833
 523       5.618e+00      -1.514e+01       5.469e-02          -0.062          -0.005           0.998       1.441e-02         -0.2542
 524       5.545e+00      -1.514e+01       5.040e-02          -0.052          -0.004           0.999       1.796e-02         -0.3280
 525       5.457e+00      -1.514e+01       4.608e-02          -0.040          -0.001           0.999       2.109e-02         -0.3822
 526       5.354e+00      -1.514e+01       4.232e-02          -0.027           0.001           1.000       2.371e-02         -0.3780
 527       5.240e+00      -1.514e+01       3.963e-02          -0.014           0.004           1.000       2.575e-02         -0.3153
 528       5.118e+00      -1.514e+01       3.820e-02          -0.005           0.005           1.000       2.714e-02         -0.2009
[...]
1131       5.334e+00       1.668e+01       7.833e-01          -0.081          -0.997           0.018       2.425e-02          0.1627
1132       5.208e+00       1.669e+01       7.833e-01          -0.081          -0.997           0.018       2.304e-02          0.1799
1133       5.090e+00       1.670e+01       7.833e-01          -0.081          -0.997           0.018       2.126e-02          0.1956
1134       4.982e+00       1.671e+01       7.833e-01          -0.081          -0.997           0.018       1.896e-02          0.2108
1135       4.886e+00       1.672e+01       7.833e-01          -0.081          -0.997           0.018       1.620e-02          0.2287
1136       4.805e+00       1.673e+01       7.833e-01          -0.081          -0.997           0.018       1.303e-02          0.2569
1137       4.742e+00       1.673e+01       7.833e-01          -0.081          -0.997           0.018       9.544e-03          0.3143
1138       4.696e+00       1.673e+01       7.833e-01          -0.081          -0.997           0.018       5.822e-03          0.4654
1139       4.671e+00       1.674e+01       7.833e-01          -0.081          -0.997           0.018       1.957e-03          1.0603
Strip 58
1140       6.368e+00       1.660e+01       9.736e-01          -0.081          -0.997           0.018       1.957e-03          0.0107
1141       6.353e+00       1.660e+01       9.736e-01          -0.081          -0.997           0.018       5.822e-03          0.0188
1142       6.318e+00       1.661e+01       9.736e-01          -0.081          -0.997           0.018       9.544e-03          0.0279
1143       6.263e+00       1.661e+01       9.736e-01          -0.081          -0.997           0.018       1.303e-02          0.0374
1144       6.191e+00       1.662e+01       9.736e-01          -0.081          -0.997           0.018       1.620e-02          0.0474
1145       6.102e+00       1.662e+01       9.736e-01          -0.081          -0.997           0.018       1.896e-02          0.0579
1146       6.000e+00       1.663e+01       9.736e-01          -0.081          -0.997           0.018       2.126e-02          0.0690
1147       5.886e+00       1.664e+01       9.736e-01          -0.081          -0.997           0.018       2.304e-02          0.0808
1148       5.764e+00       1.665e+01       9.736e-01          -0.081          -0.997           0.018       2.425e-02          0.0933
1149       5.636e+00       1.666e+01       9.736e-01          -0.081          -0.997           0.018       2.486e-02          0.1061
1150       5.506e+00       1.667e+01       9.736e-01          -0.081          -0.997           0.018       2.486e-02          0.1188
1151       5.377e+00       1.668e+01       9.736e-01          -0.081          -0.997           0.018       2.425e-02          0.1308
1152       5.251e+00       1.669e+01       9.736e-01          -0.081          -0.997           0.018       2.304e-02          0.1414
1153       5.133e+00       1.670e+01       9.736e-01          -0.081          -0.997           0.018       2.126e-02          0.1506
1154       5.025e+00       1.671e+01       9.736e-01          -0.081          -0.997           0.018       1.896e-02          0.1591
1155       4.929e+00       1.672e+01       9.736e-01          -0.081          -0.997           0.018       1.620e-02          0.1693
1156       4.848e+00       1.673e+01       9.736e-01          -0.081          -0.997           0.018       1.303e-02          0.1865
1157       4.784e+00       1.673e+01       9.736e-01          -0.081          -0.997           0.018       9.544e-03          0.2237
1158       4.739e+00       1.673e+01       9.736e-01          -0.081          -0.997           0.018       5.822e-03          0.3256
1159       4.714e+00       1.674e+01       9.736e-01          -0.081          -0.997           0.018       1.957e-03          0.7346
Strip 59
1160       6.411e+00       1.660e+01       1.164e+00          -0.081          -0.997           0.018       1.957e-03          0.0094
1161       6.396e+00       1.660e+01       1.164e+00          -0.081          -0.997           0.018       5.822e-03          0.0166
1162       6.361e+00       1.661e+01       1.164e+00          -0.081          -0.997           0.018       9.544e-03          0.0247
1163       6.306e+00       1.661e+01       1.164e+00          -0.081          -0.997           0.018       1.303e-02          0.0330
1164       6.234e+00       1.662e+01       1.164e+00          -0.081          -0.997           0.018       1.620e-02          0.0416
1165       6.145e+00       1.662e+01       1.164e+00          -0.081          -0.997           0.018       1.896e-02          0.0505
1166       6.043e+00       1.663e+01       1.164e+00          -0.081          -0.997           0.018       2.126e-02          0.0597
1167       5.929e+00       1.664e+01       1.164e+00          -0.081          -0.997           0.018       2.304e-02          0.0692
1168       5.807e+00       1.665e+01       1.164e+00          -0.081          -0.997           0.018       2.425e-02          0.0787
1169       5.679e+00       1.666e+01       1.164e+00          -0.081          -0.997           0.018       2.486e-02          0.0880
1170       5.549e+00       1.667e+01       1.164e+00          -0.081          -0.997           0.018       2.486e-02          0.0967
1171       5.420e+00       1.668e+01       1.164e+00          -0.081          -0.997           0.018       2.425e-02          0.1041
1172       5.294e+00       1.669e+01       1.164e+00          -0.081          -0.997           0.018       2.304e-02          0.1099
1173       5.176e+00       1.670e+01       1.164e+00          -0.081          -0.997           0.018       2.126e-02          0.1141
1174       5.067e+00       1.671e+01       1.164e+00          -0.081          -0.997           0.018       1.896e-02          0.1171
1175       4.972e+00       1.672e+01       1.164e+00          -0.081          -0.997           0.018       1.620e-02          0.1204
1176       4.891e+00       1.673e+01       1.164e+00          -0.081          -0.997           0.018       1.303e-02          0.1275
1177       4.827e+00       1.673e+01       1.164e+00          -0.081          -0.997           0.018       9.544e-03          0.1463
1178       4.782e+00       1.673e+01       1.164e+00          -0.081          -0.997           0.018       5.822e-03          0.2039
1179       4.757e+00       1.674e+01       1.164e+00          -0.081          -0.997           0.018       1.957e-03          0.4492
Strip 60
1180       6.454e+00       1.660e+01       1.354e+00          -0.081          -0.997           0.018       1.957e-03          0.0082
1181       6.439e+00       1.660e+01       1.354e+00          -0.081          -0.997           0.018       5.822e-03          0.0144
1182       6.403e+00       1.661e+01       1.354e+00          -0.081          -0.997           0.018       9.544e-03          0.0213
1183       6.349e+00       1.661e+01       1.354e+00          -0.081          -0.997           0.018       1.303e-02          0.0285
1184       6.277e+00       1.662e+01       1.354e+00          -0.081          -0.997           0.018       1.620e-02          0.0358
1185       6.188e+00       1.662e+01       1.354e+00          -0.081          -0.997           0.018       1.896e-02          0.0432
1186       6.086e+00       1.663e+01       1.354e+00          -0.081          -0.997           0.018       2.126e-02          0.0507
1187       5.972e+00       1.664e+01       1.354e+00          -0.081          -0.997           0.018       2.304e-02          0.0582
1188       5.850e+00       1.665e+01       1.354e+00          -0.081          -0.997           0.018       2.425e-02          0.0654
1189       5.722e+00       1.666e+01       1.354e+00          -0.081          -0.997           0.018       2.486e-02          0.0720
1190       5.592e+00       1.667e+01       1.354e+00          -0.081          -0.997           0.018       2.486e-02          0.0776
1191       5.462e+00       1.668e+01       1.354e+00          -0.081          -0.997           0.018       2.425e-02          0.0817
1192       5.337e+00       1.669e+01       1.354e+00          -0.081          -0.997           0.018       2.304e-02          0.0840
1193       5.219e+00       1.670e+01       1.354e+00          -0.081          -0.997           0.018       2.126e-02          0.0842
1194       5.110e+00       1.671e+01       1.354e+00          -0.081          -0.997           0.018       1.896e-02          0.0825
1195       5.015e+00       1.672e+01       1.354e+00          -0.081          -0.997           0.018       1.620e-02          0.0798
1196       4.934e+00       1.673e+01       1.354e+00          -0.081          -0.997           0.018       1.303e-02          0.0777
1197       4.870e+00       1.673e+01       1.354e+00          -0.081          -0.997           0.018       9.544e-03          0.0799
1198       4.825e+00       1.673e+01       1.354e+00          -0.081          -0.997           0.018       5.822e-03          0.0985
1199       4.800e+00       1.674e+01       1.354e+00          -0.081          -0.997           0.018       1.957e-03          0.2004
Strip 61
1200       6.497e+00       1.660e+01       1.544e+00          -0.081          -0.997           0.018       1.957e-03          0.0070
1201       6.482e+00       1.660e+01       1.544e+00          -0.081          -0.997           0.018       5.822e-03          0.0122
1202       6.446e+00       1.661e+01       1.544e+00          -0.081          -0.997           0.018       9.544e-03          0.0181
1203       6.392e+00       1.661e+01       1.544e+00          -0.081          -0.997           0.018       1.303e-02          0.0241
1204       6.319e+00       1.662e+01       1.544e+00          -0.081          -0.997           0.018       1.620e-02          0.0301
1205       6.231e+00       1.662e+01       1.544e+00          -0.081          -0.997           0.018       1.896e-02          0.0362
1206       6.129e+00       1.663e+01       1.544e+00          -0.081          -0.997           0.018       2.126e-02          0.0423
1207       6.015e+00       1.664e+01       1.544e+00          -0.081          -0.997           0.018       2.304e-02          0.0481
1208       5.893e+00       1.665e+01       1.544e+00          -0.081          -0.997           0.018       2.425e-02          0.0534
1209       5.765e+00       1.666e+01       1.544e+00          -0.081          -0.997           0.018       2.486e-02          0.0580
1210       5.635e+00       1.667e+01       1.544e+00          -0.081          -0.997           0.018       2.486e-02          0.0614
1211       5.505e+00       1.668e+01       1.544e+00          -0.081          -0.997           0.018       2.425e-02          0.0631
1212       5.380e+00       1.669e+01       1.544e+00          -0.081          -0.997           0.018       2.304e-02          0.0626
1213       5.262e+00       1.670e+01       1.544e+00          -0.081          -0.997           0.018       2.126e-02          0.0597
1214       5.153e+00       1.671e+01       1.544e+00          -0.081          -0.997           0.018       1.896e-02          0.0543
1215       5.058e+00       1.672e+01       1.544e+00          -0.081          -0.997           0.018       1.620e-02          0.0463
1216       4.977e+00       1.673e+01       1.544e+00          -0.081          -0.997           0.018       1.303e-02          0.0361
1217       4.913e+00       1.673e+01       1.544e+00          -0.081          -0.997           0.018       9.544e-03          0.0236
1218       4.868e+00       1.673e+01       1.544e+00          -0.081          -0.997           0.018       5.822e-03          0.0082
1219       4.843e+00       1.674e+01       1.544e+00          -0.081          -0.997           0.018       1.957e-03         -0.0136
Strip 62
1220       6.540e+00       1.660e+01       1.735e+00          -0.081          -0.997           0.018       1.957e-03          0.0058
1221       6.525e+00       1.660e+01       1.735e+00          -0.081          -0.997           0.018       5.822e-03          0.0101
1222       6.489e+00       1.661e+01       1.735e+00          -0.081          -0.997           0.018       9.544e-03          0.0149
1223       6.435e+00       1.661e+01       1.735e+00          -0.081          -0.997           0.018       1.303e-02          0.0198
1224       6.362e+00       1.662e+01       1.735e+00          -0.081          -0.997           0.018       1.620e-02          0.0246
1225       6.274e+00       1.662e+01       1.735e+00          -0.081          -0.997           0.018       1.896e-02          0.0295
1226       6.172e+00       1.663e+01       1.735e+00          -0.081          -0.997           0.018       2.126e-02          0.0342
1227       6.058e+00       1.664e+01       1.735e+00          -0.081          -0.997           0.018       2.304e-02          0.0386
1228       5.936e+00       1.665e+01       1.735e+00          -0.081          -0.997           0.018       2.425e-02          0.0425
1229       5.808e+00       1.666e+01       1.735e+00          -0.081          -0.997           0.018       2.486e-02          0.0457
1230       5.678e+00       1.667e+01       1.735e+00          -0.081          -0.997           0.018       2.486e-02          0.0475
1231       5.548e+00       1.668e+01       1.735e+00          -0.081          -0.997           0.018       2.425e-02          0.0477
1232       5.423e+00       1.669e+01       1.735e+00          -0.081          -0.997           0.018       2.304e-02          0.0455
1233       5.305e+00       1.670e+01       1.735e+00          -0.081          -0.997           0.018       2.126e-02          0.0405
1234       5.196e+00       1.671e+01       1.735e+00          -0.081          -0.997           0.018       1.896e-02          0.0320
1235       5.101e+00       1.672e+01       1.735e+00          -0.081          -0.997           0.018       1.620e-02          0.0197
1236       5.020e+00       1.673e+01       1.735e+00          -0.081          -0.997           0.018       1.303e-02          0.0026
1237       4.956e+00       1.673e+01       1.735e+00          -0.081          -0.997           0.018       9.544e-03         -0.0224
1238       4.911e+00       1.673e+01       1.735e+00          -0.081          -0.997           0.018       5.822e-03         -0.0665
1239       4.886e+00       1.674e+01       1.735e+00          -0.081          -0.997           0.018       1.957e-03         -0.1917
Strip 63
1240       6.583e+00       1.660e+01       1.925e+00          -0.081          -0.997           0.018       1.957e-03          0.0045
1241       6.568e+00       1.660e+01       1.925e+00          -0.081          -0.997           0.018       5.822e-03          0.0079
1242       6.532e+00       1.661e+01       1.925e+00          -0.081          -0.997           0.018       9.544e-03          0.0116
1243       6.478e+00       1.661e+01       1.925e+00          -0.081          -0.997           0.018       1.303e-02          0.0153
1244       6.405e+00       1.662e+01       1.925e+00          -0.081          -0.997           0.018       1.620e-02          0.0190
1245       6.317e+00       1.662e+01       1.925e+00          -0.081          -0.997           0.018       1.896e-02          0.0226
1246       6.215e+00       1.663e+01       1.925e+00          -0.081          -0.997           0.018       2.126e-02          0.0261
1247       6.101e+00       1.664e+01       1.925e+00          -0.081          -0.997           0.018       2.304e-02          0.0293
1248       5.979e+00       1.665e+01       1.925e+00          -0.081          -0.997           0.018       2.425e-02          0.0321
1249       5.851e+00       1.666e+01       1.925e+00          -0.081          -0.997           0.018       2.486e-02          0.0342
1250       5.721e+00       1.667e+01       1.925e+00          -0.081          -0.997           0.018       2.486e-02          0.0352
1251       5.591e+00       1.668e+01       1.925e+00          -0.081          -0.997           0.018       2.425e-02          0.0347
1252       5.466e+00       1.669e+01       1.925e+00          -0.081          -0.997           0.018       2.304e-02          0.0319
1253       5.348e+00       1.670e+01       1.925e+00          -0.081          -0.997           0.018       2.126e-02          0.0262
1254       5.239e+00       1.671e+01       1.925e+00          -0.081          -0.997           0.018       1.896e-02          0.0165
1255       5.144e+00       1.672e+01       1.925e+00          -0.081          -0.997           0.018       1.620e-02          0.0014
1256       5.063e+00       1.673e+01       1.925e+00          -0.081          -0.997           0.018       1.303e-02         -0.0210
1257       4.999e+00       1.673e+01       1.925e+00          -0.081          -0.997           0.018       9.544e-03         -0.0560
1258       4.954e+00       1.673e+01       1.925e+00          -0.081          -0.997           0.018       5.822e-03         -0.1224
1259       4.929e+00       1.674e+01       1.925e+00          -0.081          -0.997           0.018       1.957e-03         -0.3264
Strip 64
1260       6.626e+00       1.660e+01       2.115e+00          -0.081          -0.997           0.018       1.957e-03          0.0031
1261       6.611e+00       1.660e+01       2.115e+00          -0.081          -0.997           0.018       5.822e-03          0.0054
1262       6.575e+00       1.661e+01       2.115e+00          -0.081          -0.997           0.018       9.544e-03          0.0078
1263       6.521e+00       1.661e+01       2.115e+00          -0.081          -0.997           0.018       1.303e-02          0.0102
1264       6.448e+00       1.662e+01       2.115e+00          -0.081          -0.997           0.018       1.620e-02          0.0125
1265       6.360e+00       1.662e+01       2.115e+00          -0.081          -0.997           0.018       1.896e-02          0.0147
1266       6.258e+00       1.663e+01       2.115e+00          -0.081          -0.997           0.018       2.126e-02          0.0169
1267       6.144e+00       1.664e+01       2.115e+00          -0.081          -0.997           0.018       2.304e-02          0.0188
1268       6.022e+00       1.665e+01       2.115e+00          -0.081          -0.997           0.018       2.425e-02          0.0205
1269       5.894e+00       1.666e+01       2.115e+00          -0.081          -0.997           0.018       2.486e-02          0.0218
1270       5.764e+00       1.667e+01       2.115e+00          -0.081          -0.997           0.018       2.486e-02          0.0224
1271       5.634e+00       1.668e+01       2.115e+00          -0.081          -0.997           0.018       2.425e-02          0.0220
1272       5.509e+00       1.669e+01       2.115e+00          -0.081          -0.997           0.018       2.304e-02          0.0201
1273       5.390e+00       1.670e+01       2.115e+00          -0.081          -0.997           0.018       2.126e-02          0.0161
1274       5.282e+00       1.671e+01       2.115e+00          -0.081          -0.997           0.018       1.896e-02          0.0085
1275       5.186e+00       1.672e+01       2.115e+00          -0.081          -0.997           0.018       1.620e-02         -0.0048
1276       5.106e+00       1.673e+01       2.115e+00          -0.081          -0.997           0.018       1.303e-02         -0.0277
1277       5.042e+00       1.673e+01       2.115e+00          -0.081          -0.997           0.018       9.544e-03         -0.0674
1278       4.997e+00       1.673e+01       2.115e+00          -0.081          -0.997           0.018       5.822e-03         -0.1459
1279       4.972e+00       1.674e+01       2.115e+00          -0.081          -0.997           0.018       1.957e-03         -0.3880










